examples/test_perturbation_outputs/pert_min_loss/pglib_opf_case6468_rte.m
%% MATPOWER Case Format : Version 2
function mpc = pglib_opf_case6468_rte
mpc.version = '2';

%%-----  Power Flow Data  -----%%
%% system MVA base
mpc.baseMVA = 100.0;
%% bus data
%    bus_i    type    Pd    Qd    Gs    Bs    area    Vm    Va    baseKV    zone    Vmax    Vmin
mpc.bus = [
	1	1	0.0	0.0	0.0	0.0	1	0.94444	0.0	45.0	1	1.0	0.88889				
	2	1	0.0	0.0	0.0	0.0	1	1.0	0.0	63.0	1	1.06349	0.93651				
	3	1	11.7	-1.2	0.0	0.0	1	1.01588	0.0	63.0	1	1.07937	0.95238				
	4	1	33.8	-8.2	0.0	0.0	1	1.01111	0.0	90.0	1	1.08889	0.93333				
	5	1	11.0	-0.9000000000000001	0.0	0.0	1	1.00794	0.0	63.0	1	1.06349	0.95238				
	6	1	13.0	4.3	0.0	0.0	1	1.0	0.0	63.0	1	1.07937	0.92063				
	7	1	1.0	-0.2	0.0	0.0	1	1.0	0.0	63.0	1	1.07937	0.92063				
	8	1	0.4	-4.4	0.0	0.0	1	0.98889	0.0	225.0	1	1.08889	0.88889				
	9	1	16.9	0.0	0.0	0.0	1	1.0	0.0	63.0	1	1.06349	0.93651				
	10	1	0.0	0.0	0.0	0.0	1	1.0	0.0	90.0	1	1.07778	0.92222				
	11	1	20.0	-3.1	0.0	0.0	1	1.0	0.0	90.0	1	1.07778	0.92222				
	12	1	0.0	0.0	0.0	0.0	1	1.01588	0.0	63.0	1	1.07937	0.95238				
	13	1	0.0	0.0	0.0	0.0	1	1.07673	0.0	380.0	1	1.10263	1.05084				
	14	1	37.0	3.6000000000000005	0.0	0.0	1	1.02778	0.0	90.0	1	1.07778	0.97778				
	15	1	0.0	0.0	0.0	0.0	1	1.0	0.0	63.0	1	1.07937	0.92063				
	16	1	10.3	1.5	0.0	0.0	1	1.0	0.0	63.0	1	1.07937	0.92063				
	17	1	11.2	-0.6	0.0	0.0	1	1.02222	0.0	90.0	1	1.06667	0.97778				
	18	1	0.0	0.0	0.0	0.0	1	0.94444	0.0	45.0	1	1.0	0.88889				
	19	1	1.0	0.0	0.0	0.0	1	1.0	0.0	63.0	1	1.06349	0.93651				
	20	1	2.3	-18.3	0.0	0.0	1	0.94444	0.0	45.0	1	1.0	0.88889				
	21	1	6.5	-1.9	0.0	0.0	1	1.02222	0.0	90.0	1	1.06667	0.97778				
	22	1	15.2	1.4	0.0	0.0	1	1.01588	0.0	63.0	1	1.07937	0.95238				
	23	1	29.100000000000005	4.6	0.0	0.0	1	1.0	0.0	63.0	1	1.06349	0.93651				
	24	1	9.7	-2.8	0.0	0.0	1	1.03333	0.0	90.0	1	1.11111	0.95556				
	25	1	46.5	-6.1	0.0	0.0	1	1.02222	0.0	90.0	1	1.1	0.94444				
	26	1	20.5	4.7	0.0	0.0	1	1.02222	0.0	90.0	1	1.06667	0.97778				
	27	1	0.0	0.0	0.0	0.0	1	1.04444	0.0	225.0	1	1.08444	1.00444				
	28	1	0.4	0.9000000000000001	0.0	0.0	1	1.01588	0.0	63.0	1	1.07937	0.95238				
	29	1	52.7	1.8000000000000003	0.0	0.0	1	1.01587	0.0	63.0	1	1.06349	0.96825				
	30	1	29.799999999999997	-1.9	0.0	0.0	1	1.01111	0.0	90.0	1	1.08889	0.93333				
	31	1	0.0	0.0	0.0	0.0	1	1.0	0.0	63.0	1	1.06349	0.93651				
	32	1	0.0	0.0	0.0	0.0	1	1.00334	0.0	150.0	1	1.10667	0.9				
	33	1	0.0	0.0	0.0	0.0	1	1.01111	0.0	225.0	1	1.08889	0.93333				
	34	1	0.0	0.0	0.0	0.0	1	1.01111	0.0	225.0	1	1.08889	0.93333				
	35	1	0.0	0.0	0.0	0.0	1	1.07237	0.0	380.0	1	1.10526	1.03947				
	36	1	0.0	0.0	0.0	0.0	1	1.07237	0.0	380.0	1	1.10526	1.03947				
	37	1	2.3	4.4	0.0	0.0	1	1.0	0.0	63.0	1	1.07937	0.92063				
	38	1	7.000000000000001	-1.0	0.0	0.0	1	1.01587	0.0	63.0	1	1.09524	0.93651				
	39	1	35.0	-6.800000000000001	0.0	0.0	1	1.02778	0.0	90.0	1	1.07778	0.97778				
	40	1	31.7	0.5	0.0	0.0	1	1.02778	0.0	90.0	1	1.07778	0.97778				
	41	1	0.0	0.0	0.0	0.0	1	1.04819	0.0	225.0	1	1.09194	1.00444				
	42	1	0.0	0.0	0.0	0.0	1	1.0415	0.0	63.0	1	1.13061	0.95238				
	43	1	3.4000000000000004	2.8	0.0	0.0	1	1.02778	0.0	90.0	1	1.07778	0.97778				
	44	1	12.4	0.0	0.0	0.0	1	1.00794	0.0	63.0	1	1.06349	0.95238				
	45	1	3.0	2.1	0.0	0.0	1	1.02222	0.0	90.0	1	1.06667	0.97778				
	46	1	0.0	0.0	0.0	0.0	1	1.0	0.0	63.0	1	1.06349	0.93651				
	47	1	0.0	0.0	0.0	0.0	1	1.0	0.0	63.0	1	1.06349	0.93651				
	48	1	34.0	1.3	0.0	0.0	1	1.0	0.0	90.0	1	1.07778	0.92222				
	49	1	6.9	-2.5	0.0	0.0	1	1.0	0.0	63.0	1	1.06349	0.93651				
	50	1	0.0	0.0	0.0	0.0	1	1.00543	0.0	63.0	1	1.07436	0.93651				
	51	1	0.0	0.0	0.0	0.0	1	1.01111	0.0	225.0	1	1.08889	0.93333				
	52	1	5.8	2.5	0.0	0.0	1	1.02222	0.0	90.0	1	1.06667	0.97778				
	53	1	0.2	-0.3	0.0	0.0	1	1.0	0.0	63.0	1	1.04762	0.95238				
	54	1	0.9000000000000001	-0.8	0.0	0.0	1	1.02222	0.0	90.0	1	1.06667	0.97778				
	55	1	30.099999999999998	5.4	0.0	0.0	1	1.04666	0.0	225.0	1	1.08889	1.00444				
	56	1	42.2	6.3	0.0	0.0	1	1.04666	0.0	225.0	1	1.08889	1.00444				
	57	2	0.0	0.0	0.0	0.0	1	1.0	0.0	63.0	1	1.07937	0.92063				
	58	1	107.59999999999998	28.800000000000004	0.0	0.0	1	1.04666	0.0	225.0	1	1.08889	1.00444				
	59	1	5.2	1.4	0.0	0.0	1	1.01588	0.0	63.0	1	1.07937	0.95238				
	60	1	0.0	0.0	0.0	0.0	1	1.01588	0.0	63.0	1	1.07937	0.95238				
	61	1	29.600000000000005	5.1	0.0	0.0	1	1.01588	0.0	63.0	1	1.07937	0.95238				
	62	1	0.0	0.0	0.0	0.0	1	1.01588	0.0	63.0	1	1.07937	0.95238				
	63	1	12.8	2.0	0.0	0.0	1	1.01588	0.0	63.0	1	1.07937	0.95238				
	64	1	47.2	-0.7	0.0	0.0	1	0.98889	0.0	225.0	1	1.08889	0.88889				
	65	1	10.0	2.9	0.0	0.0	1	1.01588	0.0	63.0	1	1.07937	0.95238				
	66	1	11.1	-9.3	0.0	0.0	1	1.0	0.0	63.0	1	1.06349	0.93651				
	67	1	0.0	0.0	0.0	0.0	1	1.0	0.0	63.0	1	1.07937	0.92063				
	68	1	41.1	-6.800000000000001	0.0	0.0	1	1.0	0.0	63.0	1	1.06349	0.93651				
	69	2	14.400000000000002	-3.2	0.0	0.0	1	1.00794	0.0	63.0	1	1.06349	0.95238				
	70	1	8.7	0.6	0.0	0.0	1	1.01588	0.0	63.0	1	1.07937	0.95238				
	71	1	55.8	10.7	0.0	0.0	1	1.0	0.0	63.0	1	1.04762	0.95238				
	72	1	0.0	0.0	0.0	0.0	1	1.04666	0.0	225.0	1	1.08889	1.00444				
	73	1	0.0	0.0	0.0	0.0	1	1.04666	0.0	225.0	1	1.08889	1.00444				
	74	1	37.1	-8.7	0.0	0.0	1	0.98889	0.0	225.0	1	1.08889	0.88889				
	75	1	19.3	1.4	0.0	0.0	1	1.02301	0.0	90.0	1	1.06825	0.97778				
	76	1	6.3	3.2	0.0	0.0	1	1.03778	0.0	225.0	1	1.08889	0.98667				
	77	1	28.9	-5.2	0.0	0.0	1	1.0	0.0	63.0	1	1.06349	0.93651				
	78	1	0.0	0.0	0.0	0.0	1	1.0	0.0	63.0	1	1.07937	0.92063				
	79	1	0.0	0.0	0.0	0.0	1	1.0	0.0	63.0	1	1.04762	0.95238				
	80	1	26.1	-1.0	0.0	0.0	1	1.04666	0.0	225.0	1	1.08889	1.00444				
	81	1	26.1	3.5000000000000004	0.0	0.0	1	1.04666	0.0	225.0	1	1.08889	1.00444				
	82	1	9.8	-3.2	0.0	0.0	1	1.0	0.0	63.0	1	1.06349	0.93651				
	83	1	85.0	46.2	0.0	0.0	1	1.04666	0.0	225.0	1	1.08889	1.00444				
	84	1	-1.0	-1.1	0.0	0.0	1	1.0	0.0	63.0	1	1.06349	0.93651				
	85	1	2.3	-0.8	0.0	0.0	1	1.0	0.0	63.0	1	1.06349	0.93651				
	86	1	30.3	-3.7000000000000006	0.0	0.0	1	1.02222	0.0	90.0	1	1.06667	0.97778				
	87	1	0.0	0.0	0.0	0.0	1	1.01588	0.0	63.0	1	1.07937	0.95238				
	88	1	11.5	-3.8	0.0	0.0	1	1.0	0.0	63.0	1	1.06349	0.93651				
	89	1	17.7	-4.9	0.0	0.0	1	1.02778	0.0	90.0	1	1.07778	0.97778				
	90	1	0.7	-0.3	0.0	0.0	1	0.94444	0.0	45.0	1	1.0	0.88889				
	91	1	0.0	0.0	0.0	0.0	1	0.94444	0.0	45.0	1	1.0	0.88889				
	92	1	24.7	0.4	0.0	0.0	1	1.01587	0.0	63.0	1	1.06349	0.96825				
	93	1	2.3	-2.5	0.0	0.0	1	0.94444	0.0	45.0	1	1.0	0.88889				
	94	1	13.0	-4.9	0.0	0.0	1	1.02222	0.0	90.0	1	1.06667	0.97778				
	95	1	38.0	3.8	0.0	0.0	1	1.02222	0.0	90.0	1	1.06667	0.97778				
	96	1	0.9000000000000001	-0.6	0.0	0.0	1	1.0	0.0	63.0	1	1.06349	0.93651				
	97	1	47.0	0.8	0.0	0.0	1	1.0	0.0	63.0	1	1.07937	0.92063				
	98	1	6.6000000000000005	-2.2	0.0	0.0	1	1.01588	0.0	63.0	1	1.07937	0.95238				
	99	1	21.9	3.2	0.0	0.0	1	1.01588	0.0	63.0	1	1.07937	0.95238				
	100	1	46.3	7.400000000000001	0.0	0.0	1	1.0	0.0	63.0	1	1.06349	0.93651				
	101	1	14.000000000000002	-1.5	0.0	0.0	1	1.0	0.0	63.0	1	1.06349	0.93651				
	102	2	0.0	0.0	0.0	0.0	1	1.01588	0.0	63.0	1	1.07937	0.95238				
	103	1	13.200000000000001	-4.0	0.0	0.0	1	1.01588	0.0	63.0	1	1.07937	0.95238				
	104	1	0.0	0.0	0.0	0.0	1	1.03778	0.0	225.0	1	1.08889	0.98667				
	105	1	28.499999999999996	-1.6	0.0	0.0	1	0.98889	0.0	225.0	1	1.08889	0.88889				
	106	1	38.8	2.2	0.0	0.0	1	1.02222	0.0	90.0	1	1.1	0.94444				
	107	1	71.6	4.9	0.0	0.0	1	1.04666	0.0	225.0	1	1.08444	1.00889				
	108	1	7.9	-4.6	0.0	0.0	1	1.02778	0.0	90.0	1	1.07778	0.97778				
	109	1	60.6	7.8	0.0	0.0	1	1.0	0.0	63.0	1	1.06349	0.93651				
	110	1	0.0	0.0	0.0	0.0	1	1.01111	0.0	225.0	1	1.08889	0.93333				
	111	1	34.2	-7.200000000000001	0.0	0.0	1	1.01587	0.0	63.0	1	1.06349	0.96825				
	112	1	0.0	0.0	0.0	0.0	1	1.0	0.0	63.0	1	1.04762	0.95238				
	113	1	0.0	0.0	0.0	0.0	1	1.04666	0.0	225.0	1	1.08889	1.00444				
	114	1	11.5	-1.0	0.0	0.0	1	1.0	0.0	63.0	1	1.06349	0.93651				
	115	1	0.0	0.0	0.0	0.0	1	1.07805	0.0	380.0	1	1.10526	1.05085				
	116	1	0.0	0.0	0.0	0.0	1	1.07805	0.0	380.0	1	1.10526	1.05085				
	117	1	13.200000000000001	-2.2	0.0	0.0	1	1.01588	0.0	63.0	1	1.07937	0.95238				
	118	1	2.0	0.8	0.0	0.0	1	1.02395	0.0	90.0	1	1.07012	0.97778				
	119	1	35.5	0.7	0.0	0.0	1	1.0	0.0	63.0	1	1.06349	0.93651				
	120	1	29.9	-1.3	0.0	0.0	1	1.0	0.0	63.0	1	1.06349	0.93651				
	121	1	15.299999999999999	3.7000000000000006	0.0	0.0	1	1.0	0.0	63.0	1	1.07937	0.92063				
	122	1	0.0	0.0	0.0	0.0	1	1.01588	0.0	63.0	1	1.07937	0.95238				
	123	1	9.0	2.7	0.0	0.0	1	1.01588	0.0	63.0	1	1.07937	0.95238				
	124	1	8.9	-4.0	0.0	0.0	1	1.02222	0.0	90.0	1	1.06667	0.97778				
	125	2	4.8	-3.1	0.0	0.0	1	1.01588	0.0	63.0	1	1.07937	0.95238				
	126	1	-0.3	0.5	0.0	0.0	1	1.0	0.0	63.0	1	1.06349	0.93651				
	127	1	6.5	0.4	0.0	0.0	1	1.0	0.0	63.0	1	1.04762	0.95238				
	128	1	13.900000000000002	5.6	0.0	0.0	1	1.01587	0.0	63.0	1	1.06349	0.96825				
	129	1	18.8	14.3	0.0	0.0	1	1.01587	0.0	63.0	1	1.06349	0.96825				
	130	1	0.0	0.0	0.0	0.0	1	1.04666	0.0	225.0	1	1.08444	1.00889				
	131	1	82.0	2.0	0.0	0.0	1	1.04666	0.0	225.0	1	1.08444	1.00889				
	132	1	11.9	0.0	0.0	0.0	1	1.0	0.0	90.0	1	1.07778	0.92222				
	133	1	1.3	0.3	0.0	0.0	1	1.0	0.0	63.0	1	1.04762	0.95238				
	134	1	71.7	15.7	0.0	0.0	1	1.04666	0.0	225.0	1	1.08889	1.00444				
	135	1	0.0	0.0	0.0	0.0	1	1.04666	0.0	225.0	1	1.08889	1.00444				
	136	1	18.8	2.3	0.0	0.0	1	1.02778	0.0	90.0	1	1.07778	0.97778				
	137	1	13.4	-9.1	0.0	0.0	1	1.01587	0.0	63.0	1	1.06349	0.96825				
	138	1	0.0	0.0	0.0	0.0	1	1.02333	0.0	150.0	1	1.08	0.96667				
	139	1	8.6	-1.0	0.0	0.0	1	1.0	0.0	63.0	1	1.07937	0.92063				
	140	1	0.0	0.0	0.0	0.0	1	1.04445	0.0	225.0	1	1.08889	1.0				
	141	1	0.0	0.0	0.0	0.0	1	1.07895	0.0	380.0	1	1.10526	1.05263				
	142	1	15.8	1.3	0.0	0.0	1	1.01588	0.0	63.0	1	1.07937	0.95238				
	143	1	0.0	0.0	0.0	0.0	1	1.03778	0.0	225.0	1	1.08889	0.98667				
	144	1	0.0	0.0	0.0	-64.0	1	0.975	0.0	20.0	1	1.15	0.8				
	145	1	21.2	10.0	0.0	0.0	1	1.03333	0.0	90.0	1	1.11111	0.95556				
	146	1	25.6	6.2	0.0	0.0	1	1.02889	0.0	225.0	1	1.08889	0.96889				
	147	1	0.0	0.0	0.0	0.0	1	1.05263	0.0	380.0	1	1.10526	1.0				
	148	1	25.0	3.6000000000000005	0.0	0.0	1	1.0	0.0	63.0	1	1.06349	0.93651				
	149	1	6.3	2.2	0.0	0.0	1	1.0	0.0	63.0	1	1.06349	0.93651				
	150	1	17.9	5.1	0.0	0.0	1	1.02222	0.0	90.0	1	1.06667	0.97778				
	151	1	41.9	5.6	0.0	0.0	1	1.0	0.0	63.0	1	1.06349	0.93651				
	152	1	0.0	0.0	0.0	0.0	1	1.01587	0.0	63.0	1	1.06349	0.96825				
	153	1	34.2	5.9	0.0	7.7	1	1.01587	0.0	63.0	1	1.06349	0.96825				
	154	1	20.4	0.6	0.0	0.0	1	1.0	0.0	63.0	1	1.06349	0.93651				
	155	1	0.0	0.0	0.0	0.0	1	1.01111	0.0	225.0	1	1.08889	0.93333				
	156	1	0.0	0.0	0.0	0.0	1	1.0	0.0	63.0	1	1.07937	0.92063				
	157	1	0.0	0.0	0.0	0.0	1	1.01587	0.0	63.0	1	1.06349	0.96825				
	158	1	-0.1	-2.1	0.0	0.0	1	0.94444	0.0	45.0	1	1.0	0.88889				
	159	1	0.0	0.0	0.0	0.0	1	0.94444	0.0	45.0	1	1.0	0.88889				
	160	1	0.0	0.0	0.0	0.0	1	1.0	0.0	63.0	1	1.06349	0.93651				
	161	1	29.5	2.3	0.0	0.0	1	0.98889	0.0	225.0	1	1.08889	0.88889				
	162	1	31.5	7.400000000000001	0.0	0.0	1	0.98889	0.0	225.0	1	1.08889	0.88889				
	163	1	0.4	-1.6	0.0	0.0	1	1.02222	0.0	90.0	1	1.06667	0.97778				
	164	1	0.0	0.0	0.0	0.0	1	1.01588	0.0	63.0	1	1.07937	0.95238				
	165	1	0.0	0.0	0.0	0.0	1	1.01588	0.0	63.0	1	1.07937	0.95238				
	166	1	11.3	-3.9	0.0	0.0	1	0.975	0.0	20.0	1	1.15	0.8				
	167	1	5.8	1.4	0.0	0.0	1	1.02222	0.0	90.0	1	1.06667	0.97778				
	168	1	7.8	-0.9000000000000001	0.0	0.0	1	1.02222	0.0	90.0	1	1.06667	0.97778				
	169	1	0.0	0.0	0.0	0.0	1	1.04543	0.0	225.0	1	1.08642	1.00444				
	170	1	9.1	-1.1	0.0	0.0	1	1.02222	0.0	90.0	1	1.06667	0.97778				
	171	1	60.0	6.1	0.0	0.0	1	1.02778	0.0	90.0	1	1.07778	0.97778				
	172	1	21.4	-1.8000000000000003	0.0	0.0	1	1.02778	0.0	90.0	1	1.07778	0.97778				
	173	1	0.0	0.0	0.0	0.0	1	1.04666	0.0	225.0	1	1.08889	1.00444				
	174	1	26.6	6.6000000000000005	0.0	0.0	1	1.01111	0.0	90.0	1	1.08889	0.93333				
	175	1	35.7	-1.5	0.0	0.0	1	1.03333	0.0	90.0	1	1.11111	0.95556				
	176	1	0.0	0.0	0.0	0.0	1	1.0	0.0	63.0	1	1.07937	0.92063				
	177	1	0.0	0.0	0.0	0.0	1	1.0	0.0	63.0	1	1.07937	0.92063				
	178	1	0.0	0.0	0.0	0.0	1	1.0	0.0	150.0	1	1.1	0.9				
	179	1	0.0	0.0	0.0	0.0	1	1.04666	0.0	225.0	1	1.08889	1.00444				
	180	1	0.0	0.0	0.0	0.0	1	1.04666	0.0	225.0	1	1.08889	1.00444				
	181	1	0.0	0.0	0.0	-32.0	1	0.975	0.0	20.0	1	1.15	0.8				
	182	1	0.0	0.0	0.0	-32.0	1	0.975	0.0	20.0	1	1.15	0.8				
	183	1	0.0	0.0	0.0	0.0	1	1.0	0.0	63.0	1	1.04762	0.95238				
	184	1	0.0	0.0	0.0	-80.0	1	1.04666	0.0	225.0	1	1.08889	1.00444				
	185	1	12.1	-5.9	0.0	0.0	1	1.0	0.0	63.0	1	1.07937	0.92063				
	186	1	16.0	3.1	0.0	0.0	1	1.0	0.0	63.0	1	1.06349	0.93651				
	187	1	5.4	0.3	0.0	0.0	1	1.01588	0.0	63.0	1	1.07937	0.95238				
	188	1	3.0	0.4	0.0	0.0	1	1.02778	0.0	90.0	1	1.07778	0.97778				
	189	1	21.9	2.4	0.0	0.0	1	1.01588	0.0	63.0	1	1.07937	0.95238				
	190	1	1.4	-0.7	0.0	0.0	1	1.02222	0.0	90.0	1	1.06667	0.97778				
	191	1	0.0	0.0	0.0	0.0	1	1.0	0.0	63.0	1	1.07937	0.92063				
	192	1	12.5	1.1	0.0	0.0	1	1.0	0.0	63.0	1	1.07937	0.92063				
	193	1	0.0	0.0	0.0	0.0	1	0.94444	0.0	45.0	1	1.0	0.88889				
	194	1	12.7	-1.3	0.0	0.0	1	1.02222	0.0	90.0	1	1.06667	0.97778				
	195	1	7.3	-1.4	0.0	0.0	1	1.0	0.0	63.0	1	1.07937	0.92063				
	196	1	7.7	5.3	0.0	0.0	1	1.04666	0.0	225.0	1	1.08889	1.00444				
	197	2	1.4	-3.2	0.0	0.0	1	1.0	0.0	63.0	1	1.07937	0.92063				
	198	1	0.0	0.0	0.0	0.0	1	1.02491	0.0	63.0	1	1.09743	0.95238				
	199	1	0.0	0.0	0.0	0.0	1	1.02491	0.0	63.0	1	1.09743	0.95238				
	200	1	25.0	-4.9	0.0	0.0	1	1.0	0.0	63.0	1	1.07937	0.92063				
...
];

%% generator data
%    bus    Pg    Qg    Qmax    Qmin    Vg    mBase    status    Pmax    Pmin    Pc1    Pc2    Qc1min    Qc1max    Qc2min    Qc2max    ramp_agc    ramp_10    ramp_30    ramp_q    apf
mpc.gen = [
	4	0.0	0.0	0.0	0.0	1.0111115	100.0	0	12.0	0.0															
	4	0.0	0.0	0.0	0.0	1.0111115	100.0	0	10.0	0.0															
	5	0.0	0.0	0.0	0.0	1.0079355	100.0	0	9.1	0.0															
	11	0.0	0.0	0.0	0.0	1.000001	100.0	0	28.000000000000004	0.0															
	11	0.0	0.0	0.0	0.0	1.000001	100.0	0	18.0	0.0															
	17	0.0	0.0	0.0	0.0	1.022224	100.0	0	8.2	0.0															
	19	0.0	0.0	0.0	0.0	0.999999	100.0	0	1.2	0.0															
	22	0.0	0.0	0.0	0.0	1.0158755	100.0	0	10.0	0.0															
	24	0.0	0.0	0.0	0.0	1.033333	100.0	0	16.1	0.0															
	24	0.0	0.0	0.0	0.0	1.033333	100.0	0	35.5	0.0															
	25	0.0	0.0	0.0	0.0	1.022222	100.0	0	36.0	0.0															
	25	0.0	0.0	0.0	0.0	1.022222	100.0	0	27.200000000000003	0.0															
	40	0.0	0.0	0.0	0.0	1.027779	100.0	0	8.0	0.0															
	47	0.0	-3.11	9.5	-9.5	0.999999	100.0	0	16.0	0.0															
	47	0.0	-3.11	9.5	-9.5	0.999999	100.0	0	16.0	0.0															
	48	0.0	0.0	0.0	0.0	1.000001	100.0	0	23.0	0.0															
	48	0.0	0.0	0.0	0.0	1.000001	100.0	0	24.0	0.0															
	57	6.5	0.95	1.0	0.9000000000000001	1.0000025	100.0	1	13.0	0.0															
	64	0.0	0.0	0.0	0.0	0.9888895	100.0	0	24.0	0.0															
	64	0.0	0.0	0.0	0.0	0.9888895	100.0	0	27.6	0.0															
	69	15.02	0.0	0.0	0.0	1.0079355	100.0	1	30.04	0.0															
	70	0.0	0.0	0.0	0.0	1.0158755	100.0	0	23.0	0.0															
	85	0.0	0.0	0.0	0.0	0.999999	100.0	0	6.68	0.0															
	86	0.0	0.0	0.0	0.0	1.022224	100.0	0	9.2	0.0															
	102	23.0	6.0	21.0	-9.0	1.0158755	100.0	1	46.0	0.0															
	122	0.0	-0.8	5.0	-2.0	1.0158755	100.0	0	12.0	0.0															
	124	0.0	0.0	0.0	0.0	1.022224	100.0	0	9.0	0.0															
	125	13.0	0.0	0.0	0.0	1.0158755	100.0	1	26.0	0.0															
	125	0.0	0.0	0.0	0.0	1.0158755	100.0	0	12.0	0.0															
	132	0.0	0.75	3.0	-3.0	1.000001	100.0	0	17.0	0.0															
	132	0.0	0.75	1.0	-1.0	1.000001	100.0	0	4.0	0.0															
	132	0.0	0.75	3.0	-3.0	1.000001	100.0	0	14.000000000000002	0.0															
	132	0.0	0.75	3.0	-3.0	1.000001	100.0	0	14.000000000000002	0.0															
	137	0.0	-0.8	0.8	-0.8	1.015872	100.0	0	18.0	0.0															
	137	0.0	-0.8	0.8	-0.8	1.015872	100.0	0	18.0	0.0															
	156	0.0	1.5	1.76	-1.76	1.0000025	100.0	0	5.3	0.0															
	159	0.0	1.1	10.0	-13.0	0.9444445	100.0	0	17.9	0.0															
	159	0.0	-1.9	10.0	-13.0	0.9444445	100.0	0	17.9	0.0															
	178	0.0	-1.31	10.0	-4.0	1.0	100.0	0	30.0	0.0															
	191	0.0	-0.09	8.0	-8.0	1.0000025	100.0	0	11.0	0.0															
	191	0.0	-0.09	2.0	-2.0	1.0000025	100.0	0	11.0	0.0															
	193	0.0	-2.64	14.000000000000002	-14.000000000000002	0.9444445	100.0	0	30.0	0.0															
	195	0.0	0.0	0.0	0.0	1.0000025	100.0	0	23.5	0.0															
	197	7.5	0.95	1.0	0.9000000000000001	1.0000025	100.0	1	15.0	0.0															
	197	7.5	0.95	1.0	0.9000000000000001	1.0000025	100.0	1	15.0	0.0															
	220	0.0	0.0	0.0	0.0	1.022224	100.0	0	11.94	0.0															
	227	0.0	0.0	2.0	0.0	1.0	100.0	0	6.0	0.0															
	230	0.0	0.0	0.0	0.0	1.0079355	100.0	0	7.5	0.0															
	239	0.0	0.0	0.0	0.0	1.000001	100.0	0	33.5	0.0															
	239	0.0	0.0	0.0	0.0	1.000001	100.0	0	24.3	0.0															
	241	0.0	0.0	0.0	0.0	1.022224	100.0	0	8.0	0.0															
	241	0.0	0.0	0.0	0.0	1.022224	100.0	0	36.0	0.0															
	249	0.0	0.0	2.0	0.0	0.999999	100.0	0	1.0	0.0															
	249	0.0	-2.59	10.0	-10.0	0.999999	100.0	0	31.0	0.0															
	249	0.0	-2.59	10.0	-10.0	0.999999	100.0	0	31.0	0.0															
	249	0.0	-2.59	10.0	-10.0	0.999999	100.0	0	31.0	0.0															
	259	0.0	3.4799999999999995	10.0	-10.0	1.0000025	100.0	0	26.0	0.0															
	259	0.0	2.51	10.0	-10.0	1.0000025	100.0	0	26.0	0.0															
	261	0.0	0.0	1.0	0.9000000000000001	1.000001	100.0	0	30.0	0.0															
	264	0.0	4.0	4.0	-4.0	1.0000025	100.0	0	8.0	0.0															
	272	0.0	0.0	0.0	0.0	1.0000025	100.0	0	12.6	0.0															
	285	0.0	-2.62	6.1	-6.2	0.999999	100.0	0	11.6	0.0															
	298	0.0	0.0	0.0	0.0	0.9888895	100.0	0	25.3	0.0															
	299	0.0	0.0	0.0	0.0	1.0158755	100.0	0	12.0	0.0															
	308	0.0	-6.7	9.0	-9.0	0.999999	100.0	0	15.0	0.0															
	315	12.9	0.0	0.0	0.0	1.000001	100.0	1	25.8	0.0															
	315	24.8	0.0	0.0	0.0	1.000001	100.0	1	49.6	0.0															
	320	0.0	0.0	0.0	0.0	1.0000025	100.0	0	0.0	-7.000000000000001															
	320	0.0	0.0	0.0	0.0	1.0000025	100.0	0	0.0	-7.000000000000001															
	322	0.0	0.1	0.1	-0.1	1.0000025	100.0	0	10.8	0.0															
	328	0.0	-0.22999999999999998	4.0	-4.0	0.999999	100.0	0	11.0	0.0															
	335	0.0	2.42	13.0	-9.0	1.015872	100.0	0	25.0	0.0															
	336	0.0	4.48	13.0	-9.0	1.0233335	100.0	0	25.0	0.0															
	339	0.0	2.68	5.0	-6.0	1.0000025	100.0	0	13.0	0.0															
	341	0.0	1.05	10.0	-10.0	1.0000025	100.0	0	21.0	0.0															
	341	0.0	0.1	0.1	-0.1	1.0000025	100.0	0	2.0	0.0															
	348	0.0	0.0	0.0	0.0	1.027779	100.0	0	2.3	0.0															
	348	9.75	0.0	0.0	0.0	1.027779	100.0	1	19.5	0.0															
	351	0.0	0.0	0.0	0.0	1.022222	100.0	0	22.0	0.0															
	359	0.0	9.21	30.0	-30.0	1.0000025	100.0	0	30.0	0.0															
	360	0.0	0.0	0.0	0.0	1.0158755	100.0	0	12.0	0.0															
	360	0.0	0.0	0.0	0.0	1.0158755	100.0	0	12.0	0.0															
	367	65.0	16.5	59.0	-26.0	1.046665	100.0	1	130.0	0.0															
	394	0.0	0.0	0.0	0.0	1.0000025	100.0	0	2.7	0.0															
	413	0.0	0.0	0.0	0.0	1.022224	100.0	0	10.0	0.0															
	413	0.0	0.0	0.0	0.0	1.022224	100.0	0	11.5	0.0															
	433	0.0	0.0	0.0	0.0	1.0000025	100.0	0	12.0	0.0															
	442	0.0	5.39	10.96	-11.99	1.0000025	100.0	0	34.25	0.0															
	449	0.0	-0.57	8.0	-9.0	1.015872	100.0	0	25.0	0.0															
	465	0.0	0.0	0.0	0.0	1.0079355	100.0	0	2.4	0.0															
	465	0.0	0.0	0.0	0.0	1.0079355	100.0	0	16.0	0.0															
	467	14.000000000000002	1.5	6.0	-3.0	0.984995	100.0	1	27.0	1.0															
	467	14.000000000000002	1.5	6.0	-3.0	0.984995	100.0	1	27.0	1.0															
	469	24.5	4.5	19.0	-10.0	1.0079355	100.0	1	48.0	1.0															
	473	0.0	-3.72	6.0	-6.0	0.999999	100.0	0	10.0	0.0															
	473	0.0	-5.4	5.4	-5.4	0.999999	100.0	0	9.0	0.0															
	482	0.0	-2.21	17.0	-16.0	0.999999	100.0	0	27.0	0.0															
	482	0.0	-2.21	17.0	-16.0	0.999999	100.0	0	27.0	0.0															
	482	0.0	-2.21	17.0	-16.0	0.999999	100.0	0	27.0	0.0															
	494	0.0	0.09	8.0	-17.0	1.033334	100.0	0	23.4	0.0															
	511	0.0	1.56	2.0	-2.0	0.999999	100.0	0	4.0	0.0															
	520	0.0	0.0	0.0	0.0	1.015874	100.0	0	10.0	0.0															
	521	0.0	0.0	0.0	0.0	1.022224	100.0	0	12.0	0.0															
	531	0.0	-1.49	4.8	-4.8	0.999999	100.0	0	8.0	0.0															
	531	0.0	-1.49	4.8	-4.8	0.999999	100.0	0	8.0	0.0															
	531	0.0	-1.49	4.8	-4.8	0.999999	100.0	0	8.0	0.0															
	537	0.0	0.0	0.0	0.0	1.022224	100.0	0	12.0	0.0															
	537	12.0	0.0	0.0	0.0	1.022224	100.0	1	24.0	0.0															
	546	4.5	1.95	2.0	1.9	1.0000025	100.0	1	9.0	0.0															
	549	0.0	2.0	2.0	0.0	1.0000025	100.0	0	12.0	0.0															
	571	0.0	0.0	0.0	0.0	1.0158755	100.0	0	12.0	0.0															
	571	15.0	0.0	0.0	0.0	1.0158755	100.0	1	30.0	0.0															
	571	0.0	0.0	0.0	0.0	1.0158755	100.0	0	11.5	0.0															
	584	8.0	1.5	7.000000000000001	-4.0	1.0000005	100.0	1	16.0	0.0															
	586	0.0	0.0	0.0	0.0	1.0158755	100.0	0	9.0	0.0															
	587	0.0	-4.04	5.7	-5.7	0.999999	100.0	0	9.5	0.0															
	590	0.0	0.1	0.1	-0.1	1.000001	100.0	0	1.0	0.0															
	594	0.0	2.85	10.0	-10.0	1.0000025	100.0	0	21.0	0.0															
	601	0.0	1.0	1.0	-1.0	1.015872	100.0	0	6.1	0.0															
	611	22.5	0.0	45.0	-45.0	0.975	100.0	1	45.0	0.0															
	611	0.0	-1.37	45.0	-45.0	0.975	100.0	0	45.0	0.0															
	613	0.0	0.0	0.0	0.0	1.022224	100.0	0	12.0	0.0															
	613	0.0	0.0	0.0	0.0	1.022224	100.0	0	12.0	0.0															
	613	0.0	0.0	0.0	0.0	1.022224	100.0	0	12.0	0.0															
	614	0.0	0.0	0.0	0.0	1.0000005	100.0	0	35.0	0.0															
	614	0.0	0.0	0.0	0.0	1.0000005	100.0	0	11.5	0.0															
	626	0.0	-8.3	8.3	-8.3	1.0111115	100.0	0	8.3	-8.3															
	635	0.0	-6.0	4.0	-6.0	0.999999	100.0	0	7.3	0.0															
	638	0.0	1.83	7.000000000000001	0.0	1.015872	100.0	0	15.0	0.0															
	638	0.0	5.83	7.000000000000001	0.0	1.015872	100.0	0	15.0	0.0															
	653	0.0	0.0	7.000000000000001	0.0	1.0000025	100.0	0	7.000000000000001	0.0															
	671	0.0	0.0	0.0	0.0	1.022224	100.0	0	12.0	0.0															
	671	0.0	0.0	0.0	0.0	1.022224	100.0	0	12.0	0.0															
	672	0.0	0.0	0.0	0.0	1.027779	100.0	0	7.5	0.0															
	672	12.0	0.0	0.0	0.0	1.027779	100.0	1	24.0	0.0															
	680	0.0	0.0	0.0	0.0	1.022224	100.0	0	6.6000000000000005	0.0															
	681	0.0	0.0	0.0	0.0	1.027719	100.0	0	12.0	0.0															
	685	0.0	-0.6	6.0	-5.0	0.9444445	100.0	0	9.0	0.0															
	685	0.0	-0.6	6.0	-5.0	0.9444445	100.0	0	9.0	0.0															
	685	0.0	-0.6	8.0	-5.0	0.9444445	100.0	0	11.0	0.0															
	685	0.0	-0.6	8.0	-5.0	0.9444445	100.0	0	11.0	0.0															
	696	16.175	0.0	0.0	0.0	1.022222	100.0	1	32.35	0.0															
	696	0.0	0.0	0.0	0.0	1.022222	100.0	0	12.0	0.0															
	696	0.0	0.0	0.0	0.0	1.022222	100.0	0	21.0	0.0															
	700	18.5	-1.0	15.0	-17.0	0.975	100.0	1	37.0	0.0															
	700	18.5	-1.0	15.0	-17.0	0.975	100.0	1	37.0	0.0															
	699	18.5	0.0	15.0	-15.0	0.975	100.0	1	37.0	0.0															
	699	18.5	0.0	15.0	-15.0	0.975	100.0	1	37.0	0.0															
	698	18.5	-1.0	15.0	-17.0	0.975	100.0	1	37.0	0.0															
	698	18.5	-1.0	15.0	-17.0	0.975	100.0	1	37.0	0.0															
	706	0.0	0.69	2.0	-2.0	0.9444445	100.0	0	4.0	0.0															
	706	0.0	1.19	2.5	-2.5	0.9444445	100.0	0	4.0	0.0															
	706	0.0	1.6	3.0	-3.0	0.9444445	100.0	0	5.7	0.0															
	706	0.0	-1.31	6.0	-5.0	0.9444445	100.0	0	8.5	0.0															
	733	9.75	0.0	0.0	0.0	1.022224	100.0	1	19.5	0.0															
	734	19.5	0.0	18.0	-18.0	0.999999	100.0	1	39.0	0.0															
	735	0.0	0.0	0.0	0.0	1.0158755	100.0	0	11.5	0.0															
	735	16.0	0.0	0.0	0.0	1.0158755	100.0	1	32.0	0.0															
	737	0.0	0.0	0.0	0.0	1.000001	100.0	0	12.0	0.0															
	737	0.0	0.0	0.0	0.0	1.000001	100.0	0	32.0	0.0															
	738	0.0	0.1	0.1	-0.1	1.0000025	100.0	0	5.0	0.0															
	745	0.0	-2.25	4.4	-3.7000000000000006	0.999999	100.0	0	6.7	0.0															
	745	0.0	-1.6500000000000001	5.0	-3.0	0.999999	100.0	0	5.6	0.0															
	746	13.3	-0.775	15.0	-16.55	0.999999	100.0	1	26.6	0.0															
	747	4.0	0.0	2.0	-2.0	1.022224	100.0	1	7.000000000000001	1.0															
	752	0.0	-2.63	3.0	-3.0	0.999999	100.0	0	5.0	-5.0															
	759	0.0	5.35	8.0	-8.0	0.9888895	100.0	0	23.5	0.0															
	761	0.0	0.0	0.0	0.0	0.999999	100.0	0	6.0	0.0															
	762	0.0	0.0	0.0	0.0	0.999999	100.0	0	6.0	0.0															
	761	18.75	2.0	10.0	-6.0	0.999999	100.0	1	37.5	0.0															
	762	18.75	2.0	10.0	-6.0	0.999999	100.0	1	37.5	0.0															
	763	0.0	0.06	0.06	-0.06	0.825	100.0	0	0.6	0.0															
	763	0.0	2.61	2.61	-2.61	0.825	100.0	0	26.1	0.0															
	763	0.0	0.16	0.16	-0.16	0.825	100.0	0	1.6	0.0															
	763	0.0	0.11	0.11	-0.11	0.825	100.0	0	1.1	0.0															
	767	0.0	0.0	0.0	0.0	1.0158755	100.0	0	37.5	0.0															
	767	0.0	0.0	0.0	0.0	1.0158755	100.0	0	34.0	0.0															
	787	0.0	-3.75	26.0	-26.0	0.975	100.0	0	8.0	0.0															
	787	0.0	-3.75	26.0	-26.0	0.975	100.0	0	15.0	0.0															
	788	0.0	-3.4000000000000004	26.0	-26.0	0.975	100.0	0	19.0	0.0															
	802	15.5	-1.0	15.0	-17.0	0.975	100.0	1	31.0	0.0															
	802	15.5	-1.0	15.0	-17.0	0.975	100.0	1	31.0	0.0															
	803	15.5	-1.0	15.0	-17.0	0.975	100.0	1	31.0	0.0															
	803	15.5	-1.0	15.0	-17.0	0.975	100.0	1	31.0	0.0															
	804	15.5	-1.0	15.0	-17.0	0.975	100.0	1	31.0	0.0															
	804	15.5	-1.0	15.0	-17.0	0.975	100.0	1	31.0	0.0															
	808	0.0	0.0	0.0	0.0	1.0000025	100.0	0	40.8	0.0															
	816	16.5	-1.5	6.0	-9.0	1.015872	100.0	1	32.0	1.0															
	816	0.0	0.0	6.0	-9.0	1.015872	100.0	0	32.0	1.0															
	817	16.5	-1.5	6.0	-9.0	1.015872	100.0	1	32.0	1.0															
	817	16.5	-1.5	6.0	-9.0	1.015872	100.0	1	32.0	1.0															
	817	16.5	-1.5	6.0	-9.0	1.015872	100.0	1	32.0	1.0															
	817	16.5	-1.5	6.0	-9.0	1.015872	100.0	1	32.0	1.0															
	827	0.0	0.38	3.0	-3.0	1.0000025	100.0	0	13.0	0.0															
	827	0.0	3.0	3.0	-3.0	1.0000025	100.0	0	7.000000000000001	0.0															
	830	0.0	0.0	0.0	0.0	1.022222	100.0	0	2.4	0.0															
	831	0.0	1.43	10.0	-10.0	1.0000025	100.0	0	27.0	0.0															
	832	0.0	-2.73	10.0	-10.0	0.9444445	100.0	0	20.0	0.0															
	834	0.0	-0.51	3.1400000000000006	-3.4300000000000006	1.0000025	100.0	0	9.8	0.0															
	834	0.0	0.0	1.0	0.0	1.0000025	100.0	0	5.0	0.0															
...
];

%% branch data
%    f_bus    t_bus    r    x    b    rateA    rateB    rateC    ratio    angle    status    angmin    angmax
mpc.branch = [
	4667	1	0.005726	0.010482	0.0	2186.0	2186.0	2186.0	0	0	1	-29.999999999999996	29.999999999999996								
	5273	1	0.01284	0.025679	0.0	910.0	910.0	910.0	0	0	1	-29.999999999999996	29.999999999999996								
	1689	2	0.005799	0.010615	0.0075	2441.0	2441.0	2441.0	0	0	1	-29.999999999999996	29.999999999999996								
	1680	3	0.134039	0.309398	0.0035	91.0	91.0	91.0	0	0	1	-29.999999999999996	29.999999999999996								
	2311	3	0.049131	0.133283	0.0015	215.0	215.0	215.0	0	0	1	-29.999999999999996	29.999999999999996								
	696	4	0.025926	0.109136	0.0002	281.0	281.0	281.0	0	0	1	-29.999999999999996	29.999999999999996								
	3961	4	0.05	0.126914	0.0006	225.99999999999997	225.99999999999997	225.99999999999997	0	0	1	-29.999999999999996	29.999999999999996								
	5073	4	0.02321	0.097407	0.0016	315.0	315.0	315.0	0	0	1	-29.999999999999996	29.999999999999996								
	4437	5	0.040564	0.113631	0.0013	245.00000000000003	245.00000000000003	245.00000000000003	0	0	1	-29.999999999999996	29.999999999999996								
	2789	6	0.006047	0.020912	0.0222	1398.0	1398.0	1398.0	0	0	1	-29.999999999999996	29.999999999999996								
	2790	7	0.012472	0.032099	0.0061	884.0	884.0	884.0	0	0	1	-29.999999999999996	29.999999999999996								
	2477	8	0.002607	0.017462	0.0324	540.0	540.0	540.0	0	0	1	-29.999999999999996	29.999999999999996								
	473	9	0.053893	0.14258	0.0017	194.0	194.0	194.0	0	0	1	-29.999999999999996	29.999999999999996								
	11	10	0.000247	0.001235	0.0005	24078.0	24078.0	24078.0	0	0	1	-29.999999999999996	29.999999999999996								
	11	10	0.000247	0.001235	0.0002	24078.0	24078.0	24078.0	0	0	1	-29.999999999999996	29.999999999999996								
	30	11	0.039753	0.100988	0.0047	284.0	284.0	284.0	0	0	1	-29.999999999999996	29.999999999999996								
	2945	11	0.037654	0.096173	0.001	294.0	294.0	294.0	0	0	1	-29.999999999999996	29.999999999999996								
	2189	12	0.014613	0.060721	0.0008	487.0	487.0	487.0	0	0	1	-29.999999999999996	29.999999999999996								
	4039	12	0.034064	0.121139	0.0015	242.0	242.0	242.0	0	0	1	-29.999999999999996	29.999999999999996								
	4041	12	0.000242	0.000442	0.0004	60354.99999999999	60354.99999999999	60354.99999999999	0	0	1	-29.999999999999996	29.999999999999996								
	115	13	2.1e-5	0.000125	0.1386	737.0	737.0	737.0	0	0	1	-29.999999999999996	29.999999999999996								
	2345	13	0.000145	0.001877	0.0635	2487.0	2487.0	2487.0	0	0	1	-29.999999999999996	29.999999999999996								
	4597	13	0.000319	0.003234	0.0838	1841.0	1841.0	1841.0	0	0	1	-29.999999999999996	29.999999999999996								
	116	13	2.1e-5	0.000125	0.1386	737.0	737.0	737.0	0	0	1	-29.999999999999996	29.999999999999996								
	1229	14	0.04	0.134198	0.0274	217.0	217.0	217.0	0	0	1	-29.999999999999996	29.999999999999996								
	2887	14	0.012222	0.052346	0.0026	565.0	565.0	565.0	0	0	1	-29.999999999999996	29.999999999999996								
	4615	14	0.007284	0.045432	0.0024	660.0	660.0	660.0	0	0	1	-29.999999999999996	29.999999999999996								
	4976	14	0.059963	0.154222	0.0236	184.0	184.0	184.0	0	0	1	-29.999999999999996	29.999999999999996								
	5259	14	0.018025	0.110988	0.0073	270.0	270.0	270.0	0	0	1	-29.999999999999996	29.999999999999996								
	2887	14	0.012222	0.052593	0.0032	562.0	562.0	562.0	0	0	1	-29.999999999999996	29.999999999999996								
	4615	14	0.007284	0.044938	0.0024	667.0	667.0	667.0	0	0	1	-29.999999999999996	29.999999999999996								
	2921	15	0.037541	0.100529	0.0011	284.0	284.0	284.0	0	0	1	-29.999999999999996	29.999999999999996								
	4150	15	0.090199	0.211388	0.0023	133.0	133.0	133.0	0	0	1	-29.999999999999996	29.999999999999996								
	4477	15	0.09801	0.267574	0.0	107.0	107.0	107.0	0	0	1	-29.999999999999996	29.999999999999996								
	252	16	0.071806	0.191484	0.0019	149.0	149.0	149.0	0	0	1	-29.999999999999996	29.999999999999996								
	340	16	0.119174	0.284958	0.0044	99.0	99.0	99.0	0	0	1	-29.999999999999996	29.999999999999996								
	5865	17	0.022346	0.061111	0.0029	457.0	457.0	457.0	0	0	1	-29.999999999999996	29.999999999999996								
	3747	18	0.009383	0.019753	0.0	1194.0	1194.0	1194.0	0	0	1	-29.999999999999996	29.999999999999996								
	5121	19	0.000252	0.000504	0.0	52398.0	52398.0	52398.0	0	0	1	-29.999999999999996	29.999999999999996								
	3747	20	0.001975	0.004444	0.0	5369.0	5369.0	5369.0	0	0	1	-29.999999999999996	29.999999999999996								
	1359	21	0.036296	0.099012	0.0045	282.0	282.0	282.0	0	0	1	-29.999999999999996	29.999999999999996								
	1605	21	0.032716	0.089136	0.0057	313.0	313.0	313.0	0	0	1	-29.999999999999996	29.999999999999996								
	1849	22	0.138574	0.351474	0.0058	81.0	81.0	81.0	0	0	1	-29.999999999999996	29.999999999999996								
	5050	22	0.094407	0.210456	0.0044	132.0	132.0	132.0	0	0	1	-29.999999999999996	29.999999999999996								
	1161	23	0.047115	0.117158	0.001	234.0	234.0	234.0	0	0	1	-29.999999999999996	29.999999999999996								
	2713	23	0.039557	0.120937	0.0132	233.0	233.0	233.0	0	0	1	-29.999999999999996	29.999999999999996								
	3443	23	0.022676	0.062484	0.0007	445.0	445.0	445.0	0	0	1	-29.999999999999996	29.999999999999996								
	145	24	0.064568	0.16716	0.0113	180.0	180.0	180.0	0	0	1	-29.999999999999996	29.999999999999996								
	1287	24	0.048605	0.128481	0.0062	235.0	235.0	235.0	0	0	1	-29.999999999999996	29.999999999999996								
	493	25	0.004815	0.02963	0.0016	1049.0	1049.0	1049.0	0	0	1	-29.999999999999996	29.999999999999996								
	2101	25	0.007309	0.04463	0.0073	710.0	710.0	710.0	0	0	1	-29.999999999999996	29.999999999999996								
	613	26	0.034321	0.145802	0.0073	199.0	199.0	199.0	0	0	1	-29.999999999999996	29.999999999999996								
	1872	26	0.004815	0.009753	0.0005	2731.0	2731.0	2731.0	0	0	1	-29.999999999999996	29.999999999999996								
	2613	26	0.049012	0.133704	0.0063	209.0	209.0	209.0	0	0	1	-29.999999999999996	29.999999999999996								
	2938	26	0.04642	0.126543	0.0058	221.0	221.0	221.0	0	0	1	-29.999999999999996	29.999999999999996								
	3357	26	0.046296	0.125926	0.006	222.00000000000003	222.00000000000003	222.00000000000003	0	0	1	-29.999999999999996	29.999999999999996								
	4652	26	0.053704	0.136753	0.0065	202.99999999999997	202.99999999999997	202.99999999999997	0	0	1	-29.999999999999996	29.999999999999996								
	2938	26	0.03358	0.120988	0.0062	237.0	237.0	237.0	0	0	1	-29.999999999999996	29.999999999999996								
	536	27	0.006163	0.041067	0.0759	446.0	446.0	446.0	0	0	1	-29.999999999999996	29.999999999999996								
	2358	27	0.000652	0.004369	0.0081	558.0	558.0	558.0	0	0	1	-29.999999999999996	29.999999999999996								
	2694	28	0.050945	0.131922	0.0015	216.0	216.0	216.0	0	0	1	-29.999999999999996	29.999999999999996								
	3913	28	0.058781	0.149005	0.0017	190.0	190.0	190.0	0	0	1	-29.999999999999996	29.999999999999996								
	2900	29	0.067019	0.137566	0.0037	193.0	193.0	193.0	0	0	1	-29.999999999999996	29.999999999999996								
	3339	29	0.032754	0.088939	0.0039	312.0	312.0	312.0	0	0	1	-29.999999999999996	29.999999999999996								
	3339	29	0.030184	0.080096	0.0053	345.0	345.0	345.0	0	0	1	-29.999999999999996	29.999999999999996								
	145	30	0.066049	0.187778	0.0099	161.0	161.0	161.0	0	0	1	-29.999999999999996	29.999999999999996								
	1559	30	0.065062	0.133704	0.0062	212.0	212.0	212.0	0	0	1	-29.999999999999996	29.999999999999996								
	4861	30	0.041728	0.106049	0.005	281.0	281.0	281.0	0	0	1	-29.999999999999996	29.999999999999996								
	151	31	0.009574	0.03875	0.0114	740.0	740.0	740.0	0	0	1	-29.999999999999996	29.999999999999996								
	3180	31	0.000171	0.000313	0.0002	82782.0	82782.0	82782.0	0	0	1	-29.999999999999996	29.999999999999996								
	3712	31	0.034266	0.09423	0.001	295.0	295.0	295.0	0	0	1	-29.999999999999996	29.999999999999996								
	4763	31	0.006803	0.028219	0.0	1018.0	1018.0	1018.0	0	0	1	-29.999999999999996	29.999999999999996								
	151	31	0.008566	0.037541	0.0121	767.0	767.0	767.0	0	0	1	-29.999999999999996	29.999999999999996								
	3749	32	0.009733	0.034089	0.0185	902.0	902.0	902.0	0	0	1	-29.999999999999996	29.999999999999996								
	369	34	0.000277	0.002015	0.003	15218.0	15218.0	15218.0	0	0	1	-29.999999999999996	29.999999999999996								
	1020	33	0.00881	0.033995	0.0607	882.0	882.0	882.0	0	0	1	-29.999999999999996	29.999999999999996								
	1162	33	0.004642	0.019832	0.0354	1520.0	1520.0	1520.0	0	0	1	-29.999999999999996	29.999999999999996								
	2591	34	0.008861	0.03506	0.0623	856.0	856.0	856.0	0	0	1	-29.999999999999996	29.999999999999996								
	2714	34	0.006993	0.032869	0.0557	922.0000000000001	922.0000000000001	922.0000000000001	0	0	1	-29.999999999999996	29.999999999999996								
	4768	33	0.002173	0.008731	0.0152	3440.9999999999995	3440.9999999999995	3440.9999999999995	0	0	1	-29.999999999999996	29.999999999999996								
	4878	34	0.00077	0.003121	0.0051	9629.0	9629.0	9629.0	0	0	1	-29.999999999999996	29.999999999999996								
	5700	33	0.004109	0.016138	0.0284	1859.0	1859.0	1859.0	0	0	1	-29.999999999999996	29.999999999999996								
	371	35	8.3e-5	0.000907	0.0202	1034.0	1034.0	1034.0	0	0	1	-29.999999999999996	29.999999999999996								
	1114	35	0.000552	0.006726	0.0939	1786.0	1786.0	1786.0	0	0	1	-29.999999999999996	29.999999999999996								
	2158	35	0.000512	0.008012	0.2455	2462.0	2462.0	2462.0	0	0	1	-29.999999999999996	29.999999999999996								
	3153	35	0.001107	0.00918	0.1906	1644.0000000000002	1644.0000000000002	1644.0000000000002	0	0	1	-29.999999999999996	29.999999999999996								
	370	36	6.2e-5	0.000741	0.0173	1095.0	1095.0	1095.0	0	0	1	-29.999999999999996	29.999999999999996								
	2158	35	0.000512	0.008019	0.2455	2462.0	2462.0	2462.0	0	0	1	-29.999999999999996	29.999999999999996								
	2158	36	0.001153	0.013123	0.1841	1433.0	1433.0	1433.0	0	0	1	-29.999999999999996	29.999999999999996								
	5258	37	0.055933	0.120685	0.0013	229.0	229.0	229.0	0	0	1	-29.999999999999996	29.999999999999996								
	5544	37	0.039053	0.084404	0.001	328.0	328.0	328.0	0	0	1	-29.999999999999996	29.999999999999996								
	726	38	0.00252	0.006551	0.0001	4462.0	4462.0	4462.0	0	0	1	-29.999999999999996	29.999999999999996								
	1233	39	0.009877	0.042222	0.0021	697.0	697.0	697.0	0	0	1	-29.999999999999996	29.999999999999996								
	5839	39	0.024815	0.063086	0.0029	446.0	446.0	446.0	0	0	1	-29.999999999999996	29.999999999999996								
	1233	39	0.009877	0.042222	0.0021	697.0	697.0	697.0	0	0	1	-29.999999999999996	29.999999999999996								
	2259	40	0.056173	0.142593	0.0066	198.0	198.0	198.0	0	0	1	-29.999999999999996	29.999999999999996								
	4615	40	0.034444	0.109012	0.0076	266.0	266.0	266.0	0	0	1	-29.999999999999996	29.999999999999996								
	432	41	0.000158	0.000672	0.0719	45089.0	45089.0	45089.0	0	0	1	-29.999999999999996	29.999999999999996								
	3975	41	4.5e-5	8.9e-5	0.002	312104.0	312104.0	312104.0	0	0	1	-29.999999999999996	29.999999999999996								
	1488	42	0.01096	0.020063	0.009	1460.0	1460.0	1460.0	0	0	1	-29.999999999999996	29.999999999999996								
	2775	42	0.002268	0.008818	0.0099	3665.0	3665.0	3665.0	0	0	1	-29.999999999999996	29.999999999999996								
	2734	43	0.001481	0.006296	0.0039	4689.0	4689.0	4689.0	0	0	1	-29.999999999999996	29.999999999999996								
	3506	44	0.050617	0.137012	0.009	202.99999999999997	202.99999999999997	202.99999999999997	0	0	1	-29.999999999999996	29.999999999999996								
	4347	44	0.074326	0.194507	0.0021	142.0	142.0	142.0	0	0	1	-29.999999999999996	29.999999999999996								
	5124	45	0.000247	0.000741	0.0	38027.0	38027.0	38027.0	0	0	1	-29.999999999999996	29.999999999999996								
	1089	46	0.049131	0.134039	0.001	206.99999999999997	206.99999999999997	206.99999999999997	0	0	1	-29.999999999999996	29.999999999999996								
	2202	46	0.033258	0.090955	0.001	305.0	305.0	305.0	0	0	1	-29.999999999999996	29.999999999999996								
	3323	46	0.067437	0.123442	0.001	210.0	210.0	210.0	0	0	1	-29.999999999999996	29.999999999999996								
	1089	47	0.037289	0.118166	0.001	239.0	239.0	239.0	0	0	1	-29.999999999999996	29.999999999999996								
	5392	48	0.021358	0.057037	0.0005	573.0	573.0	573.0	0	0	1	-29.999999999999996	29.999999999999996								
	1227	49	0.071303	0.180902	0.0021	152.0	152.0	152.0	0	0	1	-29.999999999999996	29.999999999999996								
	2353	49	0.071554	0.18191	0.0021	152.0	152.0	152.0	0	0	1	-29.999999999999996	29.999999999999996								
	473	50	0.028193	0.104535	0.0013	278.0	278.0	278.0	0	0	1	-29.999999999999996	29.999999999999996								
	1683	50	0.055404	0.171429	0.01	167.0	167.0	167.0	0	0	1	-29.999999999999996	29.999999999999996								
	3572	50	0.010834	0.071554	0.001	416.0	416.0	416.0	0	0	1	-29.999999999999996	29.999999999999996								
	4649	50	0.013857	0.030234	0.0003	905.0000000000001	905.0000000000001	905.0000000000001	0	0	1	-29.999999999999996	29.999999999999996								
	3572	50	0.011414	0.070648	0.0009	421.0	421.0	421.0	0	0	1	-29.999999999999996	29.999999999999996								
	4649	50	0.013757	0.030108	0.0003	909.0	909.0	909.0	0	0	1	-29.999999999999996	29.999999999999996								
	1200	51	0.00478	0.028622	0.0547	455.0	455.0	455.0	0	0	1	-29.999999999999996	29.999999999999996								
	1201	51	0.00478	0.028583	0.0547	455.0	455.0	455.0	0	0	1	-29.999999999999996	29.999999999999996								
	167	52	0.01284	0.032716	0.0015	846.0000000000001	846.0000000000001	846.0000000000001	0	0	1	-29.999999999999996	29.999999999999996								
	5518	52	0.014198	0.036049	0.0016	767.0	767.0	767.0	0	0	1	-29.999999999999996	29.999999999999996								
	3367	53	0.005291	0.021668	0.0003	1285.0	1285.0	1285.0	0	0	1	-29.999999999999996	29.999999999999996								
	2779	54	0.01358	0.047654	0.0023	600.0	600.0	600.0	0	0	1	-29.999999999999996	29.999999999999996								
	376	55	0.000257	0.000514	0.0294	53862.0	53862.0	53862.0	0	0	1	-29.999999999999996	29.999999999999996								
	2703	56	0.000257	0.002153	0.2147	451.99999999999994	451.99999999999994	451.99999999999994	0	0	1	-29.999999999999996	29.999999999999996								
	3445	56	0.000277	0.000869	0.0931	480.99999999999994	480.99999999999994	480.99999999999994	0	0	1	-29.999999999999996	29.999999999999996								
	5125	57	0.000756	0.00252	0.0	11560.0	11560.0	11560.0	0	0	1	-29.999999999999996	29.999999999999996								
	3408	58	0.000237	0.00083	0.1863	35859.0	35859.0	35859.0	0	0	1	-29.999999999999996	29.999999999999996								
	3584	58	0.000178	0.000612	0.1377	48564.0	48564.0	48564.0	0	0	1	-29.999999999999996	29.999999999999996								
	142	59	0.030486	0.076342	0.002	370.0	370.0	370.0	0	0	1	-29.999999999999996	29.999999999999996								
	1659	59	0.011086	0.024691	0.0015	1124.0	1124.0	1124.0	0	0	1	-29.999999999999996	29.999999999999996								
	2487	60	0.044344	0.170572	0.0021	173.0	173.0	173.0	0	0	1	-29.999999999999996	29.999999999999996								
	3544	60	0.036709	0.151776	0.0017	195.0	195.0	195.0	0	0	1	-29.999999999999996	29.999999999999996								
	2236	61	0.017788	0.048551	0.0006	589.0	589.0	589.0	0	0	1	-29.999999999999996	29.999999999999996								
	2645	61	0.057521	0.145251	0.0017	195.0	195.0	195.0	0	0	1	-29.999999999999996	29.999999999999996								
	2054	62	0.014109	0.057949	0.0029	509.99999999999994	509.99999999999994	509.99999999999994	0	0	1	-29.999999999999996	29.999999999999996								
	2966	62	0.007055	0.02973	0.0014	996.0000000000001	996.0000000000001	996.0000000000001	0	0	1	-29.999999999999996	29.999999999999996								
	374	63	0.024263	0.065911	0.0007	434.0	434.0	434.0	0	0	1	-29.999999999999996	29.999999999999996								
	3100	63	0.020912	0.059209	0.0016	484.99999999999994	484.99999999999994	484.99999999999994	0	0	1	-29.999999999999996	29.999999999999996								
	146	64	0.002568	0.011753	0.0203	424.0	424.0	424.0	0	0	1	-29.999999999999996	29.999999999999996								
	5135	64	0.002568	0.011615	0.0228	2796.0	2796.0	2796.0	0	0	1	-29.999999999999996	29.999999999999996								
	4627	65	0.006299	0.033585	0.0599	891.0	891.0	891.0	0	0	1	-29.999999999999996	29.999999999999996								
	4627	65	0.006299	0.033661	0.06	889.0	889.0	889.0	0	0	1	-29.999999999999996	29.999999999999996								
	1552	66	0.102293	0.226757	0.0025	119.0	119.0	119.0	0	0	1	-29.999999999999996	29.999999999999996								
	2300	66	0.177551	0.405291	0.0046	67.0	67.0	67.0	0	0	1	-29.999999999999996	29.999999999999996								
	3267	66	0.088264	0.161566	0.0017	161.0	161.0	161.0	0	0	1	-29.999999999999996	29.999999999999996								
	3049	67	0.007307	0.014613	0.0002	1862.0	1862.0	1862.0	0	0	1	-29.999999999999996	29.999999999999996								
	2202	68	0.043336	0.11867	0.001	234.0	234.0	234.0	0	0	1	-29.999999999999996	29.999999999999996								
	2896	68	0.067775	0.139834	0.001	191.0	191.0	191.0	0	0	1	-29.999999999999996	29.999999999999996								
	4557	68	0.047367	0.16125	0.0021	176.0	176.0	176.0	0	0	1	-29.999999999999996	29.999999999999996								
	5178	68	0.004031	0.016629	0.001	1726.0000000000002	1726.0000000000002	1726.0000000000002	0	0	1	-29.999999999999996	29.999999999999996								
	4630	69	0.073066	0.205089	0.0022	136.0	136.0	136.0	0	0	1	-29.999999999999996	29.999999999999996								
	5126	70	4.8e-5	8.8e-5	0.0001	303410.0	303410.0	303410.0	0	0	1	-29.999999999999996	29.999999999999996								
	2173	71	0.000252	0.00252	0.0008	11313.0	11313.0	11313.0	0	0	1	-29.999999999999996	29.999999999999996								
	3163	71	0.030738	0.088687	0.0169	306.0	306.0	306.0	0	0	1	-29.999999999999996	29.999999999999996								
	5127	71	0.006551	0.016377	0.0171	1625.0	1625.0	1625.0	0	0	1	-29.999999999999996	29.999999999999996								
	3163	71	0.025195	0.07483	0.0204	363.0	363.0	363.0	0	0	1	-29.999999999999996	29.999999999999996								
	3766	72	9.9e-5	0.00077	0.078	39870.0	39870.0	39870.0	0	0	1	-29.999999999999996	29.999999999999996								
	3766	73	9.9e-5	0.00077	0.077	39870.0	39870.0	39870.0	0	0	1	-29.999999999999996	29.999999999999996								
	5135	74	0.000514	0.003437	0.0061	9568.0	9568.0	9568.0	0	0	1	-29.999999999999996	29.999999999999996								
	5155	74	0.005476	0.036879	0.1255	522.0	522.0	522.0	0	0	1	-29.999999999999996	29.999999999999996								
	146	74	0.000514	0.003457	0.0061	418.0	418.0	418.0	0	0	1	-29.999999999999996	29.999999999999996								
	4988	75	0.017531	0.046914	0.0023	597.0	597.0	597.0	0	0	1	-29.999999999999996	29.999999999999996								
	2091	75	0.005309	0.014321	0.0006	1953.0	1953.0	1953.0	0	0	1	-29.999999999999996	29.999999999999996								
	3101	76	0.003477	0.01118	0.0187	2644.0	2644.0	2644.0	0	0	1	-29.999999999999996	29.999999999999996								
	3852	76	0.000612	0.003121	0.0152	9733.0	9733.0	9733.0	0	0	1	-29.999999999999996	29.999999999999996								
	2352	77	0.013857	0.035525	0.0004	775.0	775.0	775.0	0	0	1	-29.999999999999996	29.999999999999996								
	243	78	0.002771	0.008314	0.0083	3471.0	3471.0	3471.0	0	0	1	-29.999999999999996	29.999999999999996								
	4582	78	0.000151	0.000302	0.0	90076.0	90076.0	90076.0	0	0	1	-29.999999999999996	29.999999999999996								
	632	79	0.010758	0.02187	0.0071	1176.0	1176.0	1176.0	0	0	1	-29.999999999999996	29.999999999999996								
	1877	79	0.003779	0.014613	0.0198	1898.9999999999998	1898.9999999999998	1898.9999999999998	0	0	1	-29.999999999999996	29.999999999999996								
	2420	79	0.008314	0.017057	0.024	1510.0	1510.0	1510.0	0	0	1	-29.999999999999996	29.999999999999996								
	4102	79	0.000252	0.001764	0.0043	16079.0	16079.0	16079.0	0	0	1	-29.999999999999996	29.999999999999996								
	632	79	0.010758	0.02187	0.0071	1176.0	1176.0	1176.0	0	0	1	-29.999999999999996	29.999999999999996								
	4101	79	0.000302	0.001562	0.0037	18009.0	18009.0	18009.0	0	0	1	-29.999999999999996	29.999999999999996								
	4103	81	2.4e-5	0.000144	0.0213	701.0	701.0	701.0	0	0	1	-29.999999999999996	29.999999999999996								
	4103	80	7.1e-5	0.000162	0.0162	174996.0	174996.0	174996.0	0	0	1	-29.999999999999996	29.999999999999996								
	676	82	0.068027	0.173091	0.002	159.0	159.0	159.0	0	0	1	-29.999999999999996	29.999999999999996								
	799	82	0.027211	0.068783	0.001	400.0	400.0	400.0	0	0	1	-29.999999999999996	29.999999999999996								
	2079	82	0.03099	0.202822	0.002	144.0	144.0	144.0	0	0	1	-29.999999999999996	29.999999999999996								
	3503	83	0.000257	0.001165	0.002	405.0	405.0	405.0	0	0	1	-29.999999999999996	29.999999999999996								
	2137	84	0.045603	0.11741	0.001	235.0	235.0	235.0	0	0	1	-29.999999999999996	29.999999999999996								
	3822	84	0.008566	0.024691	0.0	1130.0	1130.0	1130.0	0	0	1	-29.999999999999996	29.999999999999996								
	5130	85	0.047317	0.131595	0.0015	212.0	212.0	212.0	0	0	1	-29.999999999999996	29.999999999999996								
	2821	86	0.040494	0.128889	0.0064	220.00000000000003	220.00000000000003	220.00000000000003	0	0	1	-29.999999999999996	29.999999999999996								
	3530	86	0.037778	0.097037	0.0045	286.0	286.0	286.0	0	0	1	-29.999999999999996	29.999999999999996								
	3791	87	0.032071	0.058705	0.0006	455.0	455.0	455.0	0	0	1	-29.999999999999996	29.999999999999996								
	4371	87	0.062887	0.204157	0.002	143.0	143.0	143.0	0	0	1	-29.999999999999996	29.999999999999996								
	3791	87	0.032026	0.058624	0.0006	455.99999999999994	455.99999999999994	455.99999999999994	0	0	1	-29.999999999999996	29.999999999999996								
	1624	88	0.075838	0.224742	0.0027	125.0	125.0	125.0	0	0	1	-29.999999999999996	29.999999999999996								
	1713	88	0.028471	0.089695	0.001	314.0	314.0	314.0	0	0	1	-29.999999999999996	29.999999999999996								
	3663	88	0.080373	0.255732	0.003	111.00000000000001	111.00000000000001	111.00000000000001	0	0	1	-29.999999999999996	29.999999999999996								
	5588	88	0.000252	0.000504	0.0	52398.0	52398.0	52398.0	0	0	1	-29.999999999999996	29.999999999999996								
	2507	89	0.033531	0.087235	0.0166	325.0	325.0	325.0	0	0	1	-29.999999999999996	29.999999999999996								
	4252	89	0.03037	0.08321	0.0039	343.0	343.0	343.0	0	0	1	-29.999999999999996	29.999999999999996								
	5131	90	0.000444	0.001136	0.0	21404.0	21404.0	21404.0	0	0	1	-29.999999999999996	29.999999999999996								
	3747	91	0.057284	0.130864	0.0	183.0	183.0	183.0	0	0	1	-29.999999999999996	29.999999999999996								
	649	92	0.054749	0.157445	0.0027	178.0	178.0	178.0	0	0	1	-29.999999999999996	29.999999999999996								
	4079	92	0.038549	0.103049	0.0012	269.0	269.0	269.0	0	0	1	-29.999999999999996	29.999999999999996								
...
];

%%-----  OPF Data  -----%%
%% cost data
%    1    startup    shutdown    n    x1    y1    ...    xn    yn
%    2    startup    shutdown    n    c(n-1)    ...    c0
mpc.gencost = [
	2	0.0	0.0	2	33.448778	0.0
	2	0.0	0.0	2	41.33281800000001	0.0
	2	0.0	0.0	2	13.83594	0.0
	2	0.0	0.0	2	24.667146	0.0
	2	0.0	0.0	2	41.609647	0.0
	2	0.0	0.0	2	16.317434	0.0
	2	0.0	0.0	2	122.685524	0.0
	2	0.0	0.0	2	18.728687	0.0
	2	0.0	0.0	2	16.417012	0.0
	2	0.0	0.0	2	44.737952	0.0
	2	0.0	0.0	2	22.951399	0.0
	2	0.0	0.0	2	42.57295200000001	0.0
	2	0.0	0.0	2	21.558129	0.0
	2	0.0	0.0	2	112.206948	0.0
	2	0.0	0.0	2	112.32884	0.0
	2	0.0	0.0	2	125.539496	0.0
	2	0.0	0.0	2	99.363606	0.0
	2	0.0	0.0	2	53.94970000000001	0.0
	2	0.0	0.0	2	106.450488	0.0
	2	0.0	0.0	2	109.303907	0.0
	2	0.0	0.0	2	21.866917999999995	0.0
	2	0.0	0.0	2	35.522208	0.0
	2	0.0	0.0	2	118.65149800000002	0.0
	2	0.0	0.0	2	25.202641	0.0
	2	0.0	0.0	2	54.149483000000004	0.0
	2	0.0	0.0	2	22.579173	0.0
	2	0.0	0.0	2	26.571266	0.0
	2	0.0	0.0	2	37.191374	0.0
	2	0.0	0.0	2	31.309683	0.0
	2	0.0	0.0	2	110.841483	0.0
	2	0.0	0.0	2	111.74013300000001	0.0
	2	0.0	0.0	2	43.319341	0.0
	2	0.0	0.0	2	14.233921	0.0
	2	0.0	0.0	2	102.11053900000002	0.0
	2	0.0	0.0	2	33.85219	0.0
	2	0.0	0.0	2	20.629508	0.0
	2	0.0	0.0	2	110.534362	0.0
	2	0.0	0.0	2	23.10228	0.0
	2	0.0	0.0	2	104.96524800000002	0.0
	2	0.0	0.0	2	50.52748400000001	0.0
	2	0.0	0.0	2	52.987734	0.0
	2	0.0	0.0	2	119.383923	0.0
	2	0.0	0.0	2	40.798227	0.0
	2	0.0	0.0	2	38.687217	0.0
	2	0.0	0.0	2	31.216674000000005	0.0
	2	0.0	0.0	2	15.249232	0.0
	2	0.0	0.0	2	10.666055000000002	0.0
	2	0.0	0.0	2	104.915824	0.0
	2	0.0	0.0	2	103.955961	0.0
	2	0.0	0.0	2	27.087259	0.0
	2	0.0	0.0	2	29.434265	0.0
	2	0.0	0.0	2	53.812514	0.0
	2	0.0	0.0	2	117.684672	0.0
	2	0.0	0.0	2	20.546339	0.0
	2	0.0	0.0	2	108.737407	0.0
	2	0.0	0.0	2	13.090251	0.0
	2	0.0	0.0	2	106.880092	0.0
	2	0.0	0.0	2	23.391388	0.0
	2	0.0	0.0	2	9.277855	0.0
	2	0.0	0.0	2	33.103546	0.0
	2	0.0	0.0	2	31.454121	0.0
	2	0.0	0.0	2	41.88908500000001	0.0
	2	0.0	0.0	2	103.191	0.0
	2	0.0	0.0	2	38.635503	0.0
	2	0.0	0.0	2	29.098634000000004	0.0
	2	0.0	0.0	2	28.693762000000003	0.0
	2	0.0	0.0	2	46.202652	0.0
	2	0.0	0.0	2	0.0	0.0
	2	0.0	0.0	2	0.0	0.0
	2	0.0	0.0	2	106.127259	0.0
	2	0.0	0.0	2	13.362537	0.0
	2	0.0	0.0	2	28.459525	0.0
	2	0.0	0.0	2	36.070484	0.0
	2	0.0	0.0	2	40.136595	0.0
	2	0.0	0.0	2	32.572384	0.0
	2	0.0	0.0	2	105.523863	0.0
	2	0.0	0.0	2	104.546718	0.0
	2	0.0	0.0	2	44.158454	0.0
	2	0.0	0.0	2	106.412773	0.0
	2	0.0	0.0	2	118.02323000000001	0.0
	2	0.0	0.0	2	48.775553	0.0
	2	0.0	0.0	2	28.893293	0.0
	2	0.0	0.0	2	15.412473	0.0
	2	0.0	0.0	2	102.491204	0.0
	2	0.0	0.0	2	50.080449	0.0
	2	0.0	0.0	2	119.136435	0.0
	2	0.0	0.0	2	112.75805000000001	0.0
	2	0.0	0.0	2	116.21895200000002	0.0
	2	0.0	0.0	2	118.07205	0.0
	2	0.0	0.0	2	104.334969	0.0
	2	0.0	0.0	2	118.20229000000002	0.0
	2	0.0	0.0	2	119.32498800000002	0.0
	2	0.0	0.0	2	17.270899	0.0
	2	0.0	0.0	2	46.807453	0.0
	2	0.0	0.0	2	14.142931	0.0
	2	0.0	0.0	2	38.557329	0.0
	2	0.0	0.0	2	30.508318	0.0
	2	0.0	0.0	2	34.527934	0.0
	2	0.0	0.0	2	44.61967800000001	0.0
	2	0.0	0.0	2	108.377117	0.0
	2	0.0	0.0	2	25.824738000000004	0.0
	2	0.0	0.0	2	41.199053000000006	0.0
	2	0.0	0.0	2	31.877238	0.0
	2	0.0	0.0	2	101.351725	0.0
	2	0.0	0.0	2	108.068924	0.0
	2	0.0	0.0	2	9.761813	0.0
	2	0.0	0.0	2	34.219027	0.0
	2	0.0	0.0	2	122.675116	0.0
	2	0.0	0.0	2	42.057955	0.0
	2	0.0	0.0	2	114.541456	0.0
	2	0.0	0.0	2	41.45494300000001	0.0
	2	0.0	0.0	2	34.324663	0.0
	2	0.0	0.0	2	28.305836	0.0
	2	0.0	0.0	2	22.962516	0.0
	2	0.0	0.0	2	37.945927	0.0
	2	0.0	0.0	2	25.637584000000004	0.0
	2	0.0	0.0	2	36.894429	0.0
	2	0.0	0.0	2	122.230259	0.0
	2	0.0	0.0	2	18.25859	0.0
	2	0.0	0.0	2	34.396766	0.0
	2	0.0	0.0	2	37.691184	0.0
	2	0.0	0.0	2	17.090377	0.0
	2	0.0	0.0	2	52.436519	0.0
	2	0.0	0.0	2	27.981756	0.0
	2	0.0	0.0	2	116.18019000000001	0.0
	2	0.0	0.0	2	39.914188	0.0
	2	0.0	0.0	2	23.309066	0.0
	2	0.0	0.0	2	42.40935600000001	0.0
	2	0.0	0.0	2	21.175224	0.0
	2	0.0	0.0	2	38.792503	0.0
	2	0.0	0.0	2	111.867342	0.0
	2	0.0	0.0	2	27.929715	0.0
	2	0.0	0.0	2	32.021972	0.0
	2	0.0	0.0	2	10.569974	0.0
	2	0.0	0.0	2	111.951478	0.0
	2	0.0	0.0	2	15.71125	0.0
	2	0.0	0.0	2	26.867763	0.0
	2	0.0	0.0	2	12.517429	0.0
	2	0.0	0.0	2	38.11896	0.0
	2	0.0	0.0	2	38.662547	0.0
	2	0.0	0.0	2	31.577134	0.0
	2	0.0	0.0	2	116.196042	0.0
	2	0.0	0.0	2	42.708059000000006	0.0
	2	0.0	0.0	2	30.813467000000003	0.0
	2	0.0	0.0	2	51.565361	0.0
	2	0.0	0.0	2	47.917871	0.0
	2	0.0	0.0	2	25.772872	0.0
	2	0.0	0.0	2	26.773032000000004	0.0
	2	0.0	0.0	2	29.355321	0.0
	2	0.0	0.0	2	35.125469	0.0
	2	0.0	0.0	2	99.252137	0.0
	2	0.0	0.0	2	115.910524	0.0
	2	0.0	0.0	2	37.955969	0.0
	2	0.0	0.0	2	32.236783	0.0
	2	0.0	0.0	2	33.641991	0.0
	2	0.0	0.0	2	118.84540100000001	0.0
	2	0.0	0.0	2	25.207646	0.0
	2	0.0	0.0	2	43.739311	0.0
	2	0.0	0.0	2	19.447295	0.0
	2	0.0	0.0	2	103.78941800000001	0.0
	2	0.0	0.0	2	20.125469	0.0
	2	0.0	0.0	2	42.162623	0.0
	2	0.0	0.0	2	27.454138000000004	0.0
	2	0.0	0.0	2	21.079907	0.0
	2	0.0	0.0	2	109.02219700000002	0.0
	2	0.0	0.0	2	40.297021	0.0
	2	0.0	0.0	2	106.13921200000001	0.0
	2	0.0	0.0	2	10.617365	0.0
	2	0.0	0.0	2	56.253423000000005	0.0
	2	0.0	0.0	2	29.504637	0.0
	2	0.0	0.0	2	23.424946000000002	0.0
	2	0.0	0.0	2	117.48549100000001	0.0
	2	0.0	0.0	2	22.273778000000004	0.0
	2	0.0	0.0	2	112.927805	0.0
	2	0.0	0.0	2	36.506497	0.0
	2	0.0	0.0	2	43.167009	0.0
	2	0.0	0.0	2	36.381968	0.0
	2	0.0	0.0	2	25.199616000000002	0.0
	2	0.0	0.0	2	22.281954000000002	0.0
	2	0.0	0.0	2	23.339728	0.0
	2	0.0	0.0	2	109.971466	0.0
	2	0.0	0.0	2	12.719871000000001	0.0
	2	0.0	0.0	2	28.546665000000004	0.0
	2	0.0	0.0	2	35.819221	0.0
	2	0.0	0.0	2	37.980137	0.0
	2	0.0	0.0	2	52.456038	0.0
	2	0.0	0.0	2	23.89054	0.0
	2	0.0	0.0	2	19.235121	0.0
	2	0.0	0.0	2	60.13284500000001	0.0
	2	0.0	0.0	2	111.353488	0.0
	2	0.0	0.0	2	29.875404	0.0
	2	0.0	0.0	2	19.082651	0.0
	2	0.0	0.0	2	4.676219	0.0
	2	0.0	0.0	2	22.908268	0.0
	2	0.0	0.0	2	19.037183	0.0
	2	0.0	0.0	2	120.685498	0.0
	2	0.0	0.0	2	119.35432500000002	0.0
	2	0.0	0.0	2	27.686941	0.0
	2	0.0	0.0	2	106.648189	0.0
	2	0.0	0.0	2	24.004908	0.0
...
];

